# avogadro generated ORCA file
# C6H7N | Single Point | revPBE/def2-TZVP
# 
! SP revPBE def2-TZVP 

%maxcore 16384

%pal
   nprocs 1
end

%output
  Print[P_Basis] 2
  Print[P_MOs] 1
end


* xyz 0 1
   C     -3.009159    1.743655    0.060137
   C     -3.056828    0.347057    0.065177
   H      0.357988    2.160812   -0.062885
   H     -1.740842    3.484447    0.020917
   C     -1.780273    2.398623    0.032063
   C     -1.880917   -0.407630    0.086352
   H     -1.098192   -2.270588    0.296111
   H     -2.781412   -2.209237    0.351066
   C     -0.602754    1.655995   -0.010271
   N     -1.935509   -1.802016   -0.034885
   H     -4.024051   -0.147711    0.052652
   C     -0.656596    0.259574   -0.005453
   H     -3.931863    2.317466    0.062250
   H      0.269569   -0.304446   -0.073387
*


