# avogadro generated ORCA file
# C7H5N | Frequencies | revPBE/def2-TZVP
# 
! Opt Freq revPBE def2-TZVP 

%maxcore 16384

%pal
   nprocs 1
end

* xyz 0 1
   C     -3.766730    2.333312   -0.000053
   C     -3.771509    0.935996   -0.000070
   C     -2.548013    0.231593   -0.000095
   H     -0.392042    2.883921   -0.000090
   C     -2.553414    3.035913   -0.000060
   C     -2.545225   -1.204036   -0.000112
   H     -4.710898    0.381596   -0.000065
   N     -2.542657   -2.373155   -0.000127
   C     -1.337391    2.338000   -0.000085
   H     -2.555522    4.127742   -0.000047
   H     -4.714174    2.875593   -0.000034
   C     -1.327228    0.940715   -0.000102
   H     -0.385724    0.389917   -0.000121
*


