# avogadro generated ORCA file
# C6H11F | Geometry Optimization | revPBE/def2-TZVP
# 
! SP revPBE def2-TZVP 

%maxcore 16384

%pal
   nprocs 1
end
%output
  Print[P_Basis] 2
  Print[P_MOs] 1
end


* xyz 0 1
   C     -4.257341    2.529246   -0.270542
   C     -4.266955    1.062796    0.148204
   H     -1.732251    1.003864    1.380579
   H     -5.122990    0.546987   -0.301560
   C     -3.023265    3.257355    0.258693
   F     -2.996917   -0.905367    0.251218
   H     -4.277370    2.595732   -1.365334
   H     -5.163413    3.024299    0.096509
   C     -1.731151    2.544611   -0.135279
   H     -3.009061    4.284213   -0.123637
   H     -3.082187    3.324239    1.352123
   C     -1.748676    1.078990    0.286061
   H     -1.596118    2.609868   -1.221993
   H     -0.875177    3.051272    0.324418
   C     -2.977446    0.358383   -0.252658
   H     -0.841968    0.573601   -0.065422
   H     -4.402833    0.984471    1.234144
   H     -2.917152    0.274958   -1.343662
*


