# avogadro generated ORCA file
# C6H6Br | Geometry Optimization | revPBE/def2-TZVP
# 
! Opt revPBE def2-TZVP 

%maxcore 16384

%pal
   nprocs 1
end

* xyz 0 2
   C     -3.346978    1.955738   -0.074315
   C     -3.467506    0.571847    0.043749
   H     -1.994706    3.632295   -0.158427
   C     -2.314737   -0.227170    0.182727
   C     -2.084376    2.550031   -0.066971
   Br    -2.392775   -1.922516   -0.943868
   H     -0.141353   -0.225272    0.247065
   H     -2.408643   -0.840405    1.111568
   C     -0.934757    1.766139    0.044124
   H      0.046359    2.237256    0.037891
   H     -4.237647    2.574032   -0.172460
   C     -1.043915    0.381370    0.162749
   H     -4.457180    0.114000    0.035153
*


