13
Coordinates from ORCA-job job E -2806.166961924552
  C          -3.35766505963492      1.94695203694089     -0.07797187152245
  C          -3.48674306233920      0.61461945531872      0.31109251329941
  H          -1.98230286237388      3.56127954393348     -0.51964487630721
  C          -2.32918911415919     -0.16228779094812      0.56417230689030
  C          -2.07958497651904      2.51772587983215     -0.21215917798155
  Br         -2.32789007695364     -1.65791168595370     -1.77041842868897
  H          -0.15804674007310     -0.18068950008973      0.63019131389065
  H          -2.42835376601103     -1.16511494297620      0.98004834693140
  C          -0.92569482542498      1.75519987690953      0.04127165662233
  H           0.06156115374284      2.20804000338844     -0.06792324949740
  H          -4.24659311645060      2.54778530381954     -0.27916898182652
  C          -1.04524202312477      0.42207629652973      0.43078079453006
  H          -4.47246953067848      0.15967052329525      0.41871465365996
