18
Coordinates from ORCA-job job E -335.132224441443
  C          -4.26500794962327      2.53808787159360     -0.27553061875427
  C          -4.27608184792818      1.05709658205265      0.15934497356875
  H          -1.76046354599923      1.00327693556062      1.39814037583201
  H          -5.13491320582695      0.52505987399406     -0.27914625846290
  C          -3.02392626807726      3.27665120867837      0.26036062267523
  F          -2.99479358782739     -0.98075181513484      0.21532640883473
  H          -4.27638303166432      2.59720777563739     -1.37874924593254
  H          -5.18708807556966      3.03254654431814      0.06953418995878
  C          -1.72321186244655      2.55375434748383     -0.13789499631108
  H          -3.01003714587337      4.31397181266218     -0.11195194440842
  H          -3.08388645737015      3.33889796583126      1.36166578778233
  C          -1.74026982543474      1.07279925658051      0.29691269728604
  H          -1.59392728326859      2.61319787612627     -1.23358839831933
  H          -0.84990734793332      3.05978781128470      0.30378988788963
  C          -2.97772347397510      0.36289808288956     -0.25225458541755
  H          -0.83236516754333      0.55209579291700     -0.04581142700091
  H          -4.37465785315560      0.98718554524626      1.25637927342660
  H          -2.91762707048296      0.29575453227845     -1.35466474264711
