13
Coordinates from ORCA-job job E -324.523040128494
  C          -3.76673016854223      2.33331199865245     -0.00005295604437
  C          -3.77150931204140      0.93599601760749     -0.00006993958121
  C          -2.54801246423356      0.23159269705475     -0.00009448932037
  H          -0.39204174175703      2.88392059854851     -0.00009012711732
  C          -2.55341421568572      3.03591365598444     -0.00006015608377
  C          -2.54522557447691     -1.20403586676582     -0.00011211862725
  H          -4.71089793883234      0.38159533378875     -0.00006447852112
  N          -2.54265658228767     -2.37315473977851     -0.00012701444304
  C          -1.33739080644750      2.33799946218227     -0.00008449594216
  H          -2.55552211122903      4.12774137913921     -0.00004675485773
  H          -4.71417338842044      2.87559331163069     -0.00003397446119
  C          -1.32722852966470      0.94071435854827     -0.00010173111957
  H          -0.38572416638146      0.38991679340751     -0.00012076388091
