# avogadro generated ORCA file
# C7H5N | Geometry Optimization | revPBE/def2-TZVP
# 
! Opt revPBE def2-TZVP 

%maxcore 16384

%pal
   nprocs 1
end

* xyz 0 1
   C     -3.760848    2.328721   -0.000052
   C     -3.760030    0.932465   -0.000070
   C     -2.548515    0.232400   -0.000094
   H     -0.403555    2.879954   -0.000091
   C     -2.553328    3.027116   -0.000061
   C     -2.544999   -1.201216   -0.000113
   H     -4.707699    0.397393   -0.000064
   N     -2.540882   -2.361985   -0.000129
   C     -1.343488    2.333020   -0.000085
   H     -2.555194    4.114867   -0.000049
   H     -4.702538    2.872610   -0.000033
   C     -1.339451    0.936852   -0.000100
   H     -0.390000    0.404908   -0.000118
*


