16
Coordinates from ORCA-job job E -346.798138053904
  C          -2.41316888982795      0.58264496090958     -0.00010552360107
  C          -2.34871507071433     -0.81114373801700     -0.00012649414162
  C           0.09792816296736     -3.54762501195512     -0.00025411926572
  H           0.92249647970665      1.29095049363631     -0.00023017635830
  C          -1.23923346672238      1.35376220614955     -0.00014245358589
  C          -1.09739129700656     -1.45955895457137     -0.00018512657193
  H          -0.17297953171185     -4.61052829106975     -0.00025409977200
  H          -3.38978960833973      1.07214314299001     -0.00005964352148
  C           0.08334569327151     -0.69537892071106     -0.00022240033085
  H          -3.25468441024285     -1.41990692007933     -0.00009794014095
  O          -1.14258197798529     -2.83399092599140     -0.00020104199635
  H          -1.29333924393133      2.44374365557114     -0.00012581858774
  H           0.69573918546922     -3.32396910779057     -0.90039222731085
  H           0.69580556287153     -3.32398566000908      0.89984392538560
  C          -0.00041918049227      0.70621168437696     -0.00020074695537
  H           1.06269459268827     -1.17290861343885     -0.00026811324547
