# avogadro generated ORCA file
# C6H11Cl | Frequencies | revPBE/def2-TZVP
# 
! Opt Freq revPBE def2-TZVP 

%maxcore 16384

%pal
   nprocs 1
end

* xyz 0 1
   C     -5.064520    2.558878    0.077069
   C     -5.098769    1.049286    0.338269
   H     -1.896050    0.566098   -0.812920
   H     -2.605575    2.473334    1.358662
   C     -3.700342    3.072538   -0.386695
   C     -3.999523    0.319826   -0.427022
   H     -5.813513    2.820929   -0.679991
   H     -5.364302    3.080194    0.994637
   H     -1.593452    2.718874   -0.055627
   H     -4.977082    0.872000    1.415245
   H     -6.088991    0.660727    0.070508
   C     -2.607499    0.809244   -0.013302
   H     -3.621627    2.966794   -1.476242
   Cl    -4.128374   -1.443631   -0.175904
   C     -2.557102    2.313741    0.273751
   H     -2.250605    0.281430    0.880551
   H     -3.618893    4.144014   -0.171188
   H     -4.138757    0.482087   -1.502218
*


