21
Coordinates from ORCA-job job E -275.179824493848
  C      -3.150658      3.072574     -0.228097
  C      -3.263926      1.547273     -0.150035
  H      -3.479139      1.162614     -1.155751
  H      -0.741851      1.066066     -1.326226
  C      -1.852075      3.616550      0.353766
  C      -2.011561      0.864544      0.414066
  H      -3.230261      3.381006     -1.278060
  H      -4.002570      3.531226      0.287630
  C      -0.632541      2.919431     -0.240391
  H      -1.785685      4.695373      0.171853
  H      -1.855374      3.486002      1.443061
  C      -0.750815      1.393152     -0.278059
  H      -0.467272      3.285330     -1.261471
  H       0.258468      3.206434      0.330630
  C      -2.113546     -0.653653      0.277373
  H      -4.132233      1.279275      0.464881
  H       0.140895      0.950317      0.182865
  H      -1.942435      1.092350      1.486027
  H      -1.237930     -1.142491      0.716997
  H      -3.002248     -1.030999      0.793825
  H      -2.178154     -0.957188     -0.772849
21
Coordinates from ORCA-job job E -275.182092402176
  C      -3.158628      3.093034     -0.235720
  C      -3.272005      1.542255     -0.157669
  H      -3.479154      1.143361     -1.165206
  H      -0.755402      1.056406     -1.343577
  C      -1.851611      3.633011      0.363933
  C      -2.012403      0.852323      0.406601
  H      -3.225265      3.412890     -1.289435
  H      -4.016680      3.560349      0.273645
  C      -0.619530      2.939114     -0.241244
  H      -1.784126      4.720384      0.200020
  H      -1.859210      3.487517      1.457693
  C      -0.747348      1.388635     -0.291205
  H      -0.457057      3.323245     -1.262276
  H       0.276327      3.228450      0.331775
  C      -2.113676     -0.678142      0.292769
  H      -4.141897      1.260892      0.458375
  H       0.145336      0.924957      0.159185
  H      -1.939370      1.095650      1.481727
  H      -1.232566     -1.167741      0.736461
  H      -3.006040     -1.056277      0.815915
  H      -2.180605     -0.995128     -0.759733
21
Coordinates from ORCA-job job E -275.182258701276
  C      -3.159943      3.096744     -0.242704
  C      -3.275319      1.541262     -0.162292
  H      -3.475630      1.134687     -1.168906
  H      -0.772568      1.060077     -1.357136
  C      -1.852736      3.628640      0.372819
  C      -2.011760      0.854022      0.402834
  H      -3.211600      3.418078     -1.297038
  H      -4.021453      3.568177      0.257172
  C      -0.615001      2.943615     -0.240665
  H      -1.784998      4.719102      0.226680
  H      -1.864874      3.466925      1.464698
  C      -0.748064      1.389107     -0.303179
  H      -0.455505      3.339343     -1.257974
  H       0.281033      3.228393      0.334551
  C      -2.112489     -0.678403      0.304133
  H      -4.144135      1.256291      0.454114
  H       0.144910      0.914254      0.135757
  H      -1.934857      1.108676      1.476339
  H      -1.230145     -1.165757      0.748703
  H      -3.004080     -1.054352      0.830949
  H      -2.181696     -1.003695     -0.746822
21
Coordinates from ORCA-job job E -275.182301728805
  C      -3.158610      3.096614     -0.249427
  C      -3.277250      1.540979     -0.162031
  H      -3.476311      1.127367     -1.166067
  H      -0.789436      1.067731     -1.367793
  C      -1.854358      3.624126      0.378001
  C      -2.010569      0.856252      0.401546
  H      -3.196073      3.413952     -1.305272
  H      -4.023320      3.572931      0.239490
  C      -0.613117      2.945127     -0.237729
  H      -1.786670      4.716065      0.242805
  H      -1.871733      3.452544      1.467910
  C      -0.750304      1.390720     -0.312368
  H      -0.452263      3.349597     -1.251087
  H       0.281017      3.223643      0.342863
  C      -2.110992     -0.676063      0.310521
  H      -4.143568      1.257379      0.458041
  H       0.143794      0.907837      0.114900
  H      -1.929357      1.117002      1.473303
  H      -1.227626     -1.162337      0.753843
  H      -3.001346     -1.050991      0.839849
  H      -2.182819     -1.005291     -0.739263
21
Coordinates from ORCA-job job E -275.182341019012
  C      -3.155525      3.094641     -0.259059
  C      -3.279701      1.540779     -0.156382
  H      -3.484433      1.116659     -1.154804
  H      -0.811847      1.081385     -1.380369
  C      -1.857076      3.620995      0.381216
  C      -2.008501      0.857879      0.401537
  H      -3.174507      3.401321     -1.318277
  H      -4.024827      3.579216      0.212625
  C      -0.611185      2.946221     -0.230699
  H      -1.789644      4.713812      0.253255
  H      -1.882783      3.443633      1.469603
  C      -0.754235      1.393574     -0.322607
  H      -0.442130      3.360989     -1.238222
  H       0.278129      3.214560      0.361401
  C      -2.108656     -0.673754      0.314317
  H      -4.140657      1.263709      0.473515
  H       0.142364      0.901158      0.087571
  H      -1.920399      1.121841      1.471751
  H      -1.223630     -1.159987      0.753911
  H      -2.996998     -1.048911      0.846530
  H      -2.184669     -1.004533     -0.734776
21
Coordinates from ORCA-job job E -275.182441820088
  C      -3.145561      3.086946     -0.287141
  C      -3.286607      1.540548     -0.133847
  H      -3.518847      1.086046     -1.112470
  H      -0.873386      1.124775     -1.412357
  C      -1.865550      3.616975      0.385109
  C      -2.002207      0.860197      0.402701
  H      -3.114496      3.356775     -1.355694
  H      -4.027148      3.595727      0.132092
  C      -0.605870      2.948279     -0.206588
  H      -1.799112      4.710877      0.266857
  H      -1.916277      3.433735      1.470926
  C      -0.766621      1.402620     -0.348939
  H      -0.403650      3.390064     -1.195727
  H       0.265834      3.184931      0.423057
  C      -2.101597     -0.669649      0.318528
  H      -4.128673      1.288741      0.530342
  H       0.137233      0.885714      0.010804
  H      -1.893058      1.126911      1.469811
  H      -1.211437     -1.157105      0.745449
  H      -2.983656     -1.047349      0.858827
  H      -2.190225     -1.000572     -0.729707
21
Coordinates from ORCA-job job E -275.182571420665
  C      -3.135584      3.077606     -0.312739
  C      -3.292365      1.541003     -0.108283
  H      -3.559102      1.059595     -1.064774
  H      -0.926400      1.168489     -1.437126
  C      -1.873812      3.617323      0.384097
  C      -1.996128      0.860435      0.404313
  H      -3.061917      3.308373     -1.388264
  H      -4.027125      3.607346      0.055768
  C      -0.601558      2.948876     -0.181485
  H      -1.808287      4.711096      0.265179
  H      -1.948123      3.437750      1.468881
  C      -0.778761      1.411895     -0.370227
  H      -0.361188      3.412440     -1.151572
  H       0.250052      3.154305      0.485169
  C      -2.095063     -0.667968      0.316658
  H      -4.113379      1.318277      0.591355
  H       0.131334      0.876238     -0.057542
  H      -1.866789      1.124481      1.469482
  H      -1.200142     -1.157509      0.730622
  H      -2.970997     -1.049301      0.864113
  H      -2.195578     -0.995564     -0.731591
21
Coordinates from ORCA-job job E -275.182809751678
  C      -3.126306      3.065720     -0.334313
  C      -3.296166      1.542300     -0.077357
  H      -3.608269      1.038996     -1.008199
  H      -0.965931      1.211861     -1.453148
  C      -1.881732      3.624462      0.375148
  C      -1.989966      0.857286      0.407239
  H      -3.021114      3.253938     -1.415836
  H      -4.026246      3.612140     -0.013171
  C      -0.599057      2.947541     -0.154660
  H      -1.816268      4.716029      0.239366
  H      -1.978041      3.463815      1.461471
  C      -0.789549      1.421020     -0.383469
  H      -0.312521      3.425053     -1.105236
  H       0.228582      3.123575      0.549934
  C      -2.089737     -0.669735      0.305116
  H      -4.092533      1.354498      0.660309
  H       0.127384      0.874579     -0.112215
  H      -1.841441      1.109849      1.472385
  H      -1.190790     -1.163305      0.705410
  H      -2.960086     -1.056371      0.857904
  H      -2.201123     -0.988063     -0.744647
21
Coordinates from ORCA-job job E -275.183104679875
  C      -3.123172      3.053877     -0.346414
  C      -3.297402      1.543575     -0.041839
  H      -3.672696      1.030641     -0.943694
  H      -0.970680      1.244957     -1.456328
  C      -1.888397      3.643147      0.352654
  C      -1.984411      0.847674      0.409616
  H      -3.013627      3.202132     -1.434867
  H      -4.029966      3.607891     -0.055567
  C      -0.597771      2.944669     -0.128139
  H      -1.820557      4.728103      0.173925
  H      -2.000984      3.525166      1.444556
  C      -0.793653      1.426161     -0.381493
  H      -0.253246      3.422394     -1.060186
  H       0.201802      3.101302      0.614367
  C      -2.087262     -0.679175      0.278117
  H      -4.064467      1.396034      0.736617
  H       0.131857      0.881835     -0.132969
  H      -1.820693      1.075962      1.478507
  H      -1.185869     -1.178535      0.667156
  H      -2.953902     -1.072072      0.833469
  H      -2.205813     -0.980553     -0.775451
21
Coordinates from ORCA-job job E -275.183328701801
  C      -3.109605      3.036377     -0.381246
  C      -3.302354      1.546893      0.000395
  H      -3.743042      1.005377     -0.854080
  H      -1.032023      1.310157     -1.481244
  C      -1.900334      3.649943      0.341946
  C      -1.975980      0.844607      0.408124
  H      -2.951113      3.124055     -1.470536
  H      -4.025722      3.608337     -0.163259
  C      -0.593322      2.943101     -0.088631
  H      -1.831471      4.731701      0.145350
  H      -2.046201      3.552327      1.432120
  C      -0.810410      1.440148     -0.406927
  H      -0.181675      3.443038     -0.980993
  H       0.164001      3.053566      0.705040
  C      -2.079979     -0.681506      0.265315
  H      -4.024515      1.452640      0.828879
  H       0.120275      0.879609     -0.221108
  H      -1.782198      1.062564      1.474502
  H      -1.172195     -1.183777      0.635580
  H      -2.937219     -1.079718      0.831616
  H      -2.215830     -0.974254     -0.788809
21
Coordinates from ORCA-job job E -275.183403059988
  C      -3.111858      3.032783     -0.389897
  C      -3.304348      1.547080      0.018170
  H      -3.778397      1.000107     -0.815233
  H      -1.031722      1.321802     -1.484368
  C      -1.904904      3.658447      0.329614
  C      -1.973504      0.839994      0.404003
  H      -2.952623      3.104138     -1.480095
  H      -4.030161      3.605606     -0.183360
  C      -0.589268      2.942944     -0.074066
  H      -1.834301      4.735883      0.110573
  H      -2.058890      3.582112      1.419962
  C      -0.809984      1.441221     -0.408577
  H      -0.144874      3.445378     -0.949288
  H       0.147099      3.042009      0.740390
  C      -2.078086     -0.686600      0.252010
  H      -4.005105      1.474210      0.867140
  H       0.120594      0.877729     -0.229845
  H      -1.771081      1.049257      1.471052
  H      -1.167729     -1.189704      0.614745
  H      -2.931235     -1.087311      0.822552
  H      -2.220534     -0.971898     -0.803447
21
Coordinates from ORCA-job job E -275.183415229134
  C      -3.114016      3.032419     -0.388635
  C      -3.304435      1.547024      0.020477
  H      -3.781976      1.000108     -0.810955
  H      -1.025569      1.319244     -1.481722
  C      -1.905059      3.660032      0.325520
  C      -1.973505      0.839272      0.403743
  H      -2.959624      3.103551     -1.479299
  H      -4.032019      3.603865     -0.177203
  C      -0.588734      2.942379     -0.073527
  H      -1.833968      4.735806      0.098622
  H      -2.057651      3.590248      1.416376
  C      -0.807864      1.440758     -0.405536
  H      -0.140058      3.443389     -0.947248
  H       0.144123      3.041540      0.743993
  C      -2.077999     -0.686883      0.247913
  H      -4.003331      1.476832      0.871092
  H       0.121722      0.877480     -0.221378
  H      -1.771722      1.046415      1.471377
  H      -1.167159     -1.190502      0.608478
  H      -2.930609     -1.088963      0.818178
  H      -2.221458     -0.968829     -0.808232
21
Coordinates from ORCA-job job E -275.183420088203
  C      -3.113740      3.029760     -0.391177
  C      -3.304813      1.547619      0.026314
  H      -3.789148      0.997353     -0.798903
  H      -1.029187      1.324379     -1.481842
  C      -1.906177      3.661304      0.321424
  C      -1.972757      0.838905      0.404067
  H      -2.957228      3.094486     -1.481817
  H      -4.032029      3.601853     -0.183149
  C      -0.588262      2.941384     -0.069269
  H      -1.834603      4.735328      0.086655
  H      -2.060878      3.598386      1.412304
  C      -0.808392      1.442493     -0.406002
  H      -0.130554      3.443762     -0.937318
  H       0.137023      3.035030      0.755592
  C      -2.077046     -0.686507      0.243980
  H      -3.998336      1.484857      0.881805
  H       0.120265      0.877076     -0.224287
  H      -1.768491      1.044108      1.471623
  H      -1.164829     -1.190994      0.599617
  H      -2.927892     -1.090916      0.815152
  H      -2.223837     -0.964479     -0.812734
21
Coordinates from ORCA-job job E -275.183420995758
  C      -3.114332      3.030660     -0.390122
  C      -3.304893      1.547366      0.024621
  H      -3.785572      0.997284     -0.802859
  H      -1.027882      1.321416     -1.481040
  C      -1.905722      3.661147      0.321868
  C      -1.973155      0.839075      0.404421
  H      -2.959518      3.098108     -1.480844
  H      -4.032004      3.602386     -0.178577
  C      -0.588107      2.941476     -0.070639
  H      -1.834224      4.735218      0.087293
  H      -2.059127      3.597592      1.412852
  C      -0.807805      1.442030     -0.405263
  H      -0.132876      3.443647     -0.940076
  H       0.138576      3.036599      0.752822
  C      -2.077096     -0.686310      0.244787
  H      -4.000740      1.482242      0.878022
  H       0.120029      0.876105     -0.221070
  H      -1.769941      1.045231      1.472005
  H      -1.164668     -1.190753      0.599959
  H      -2.927814     -1.091121      0.815861
  H      -2.224042     -0.964214     -0.811984
21
Coordinates from ORCA-job job E -275.183421204021
  C      -3.114105      3.030511     -0.390380
  C      -3.304901      1.547383      0.024760
  H      -3.785438      0.997086     -0.802655
  H      -1.029008      1.322058     -1.481303
  C      -1.905762      3.661276      0.321898
  C      -1.973098      0.839059      0.404660
  H      -2.958913      3.097675     -1.481088
  H      -4.031754      3.602483     -0.179308
  C      -0.588135      2.941360     -0.070253
  H      -1.834222      4.735290      0.087144
  H      -2.059519      3.597933      1.412874
  C      -0.808132      1.442216     -0.405624
  H      -0.132435      3.443795     -0.939325
  H       0.138252      3.036066      0.753541
  C      -2.077005     -0.686309      0.244971
  H      -4.000743      1.482362      0.878184
  H       0.119726      0.875983     -0.222390
  H      -1.769554      1.045286      1.472161
  H      -1.164441     -1.190808      0.599759
  H      -2.927528     -1.091346      0.816199
  H      -2.224195     -0.964173     -0.811788
