14
Coordinates from ORCA-job job E -287.629395744979
  C      -3.009159      1.743655      0.060137
  C      -3.056828      0.347057      0.065177
  H       0.357988      2.160812     -0.062885
  H      -1.740842      3.484447      0.020917
  C      -1.780273      2.398623      0.032063
  C      -1.880917     -0.407630      0.086352
  H      -1.098192     -2.270588      0.296111
  H      -2.781412     -2.209237      0.351066
  C      -0.602754      1.655995     -0.010271
  N      -1.935509     -1.802016     -0.034885
  H      -4.024051     -0.147711      0.052652
  C      -0.656596      0.259574     -0.005453
  H      -3.931863      2.317466      0.062250
  H       0.269569     -0.304446     -0.073387
14
Coordinates from ORCA-job job E -287.630924588144
  C      -3.013464      1.747757      0.055706
  C      -3.066033      0.349207      0.053553
  H       0.368780      2.165429     -0.047258
  H      -1.740155      3.500555      0.026372
  C      -1.780164      2.409352      0.022225
  C      -1.882794     -0.413320      0.028663
  H      -1.099160     -2.280307      0.311904
  H      -2.780403     -2.218958      0.365818
  C      -0.598432      1.659702     -0.015259
  N      -1.936085     -1.818688     -0.036060
  H      -4.038744     -0.150295      0.069501
  C      -0.647862      0.260985     -0.017393
  H      -3.941431      2.322750      0.079168
  H       0.285108     -0.308168     -0.057096
14
Coordinates from ORCA-job job E -287.631012914456
  C      -3.013274      1.748589      0.054175
  C      -3.067879      0.350455      0.056138
  H       0.370184      2.164672     -0.045109
  H      -1.740194      3.505198      0.020409
  C      -1.780096      2.414037      0.017969
  C      -1.882951     -0.414325      0.023677
  H      -1.101145     -2.283755      0.308115
  H      -2.779159     -2.222622      0.361069
  C      -0.598619      1.660513     -0.016835
  N      -1.936138     -1.819043     -0.039180
  H      -4.039424     -0.151928      0.079709
  C      -0.645706      0.262058     -0.014934
  H      -3.942799      2.321987      0.081657
  H       0.286362     -0.309834     -0.047016
14
Coordinates from ORCA-job job E -287.631038603599
  C      -3.012271      1.749024      0.053964
  C      -3.068374      0.351657      0.058733
  H       0.370289      2.163558     -0.044159
  H      -1.740308      3.507888      0.014192
  C      -1.780031      2.417193      0.015538
  C      -1.882904     -0.414405      0.024554
  H      -1.102229     -2.286440      0.303913
  H      -2.778795     -2.225438      0.355926
  C      -0.599565      1.660993     -0.017019
  N      -1.936055     -1.817399     -0.040468
  H      -4.038227     -0.153405      0.085601
  C      -0.644904      0.263196     -0.012451
  H      -3.942969      2.320771      0.082761
  H       0.285503     -0.311190     -0.041241
14
Coordinates from ORCA-job job E -287.631043656089
  C      -3.011632      1.749197      0.054098
  C      -3.068193      0.352211      0.059462
  H       0.370083      2.163041     -0.044289
  H      -1.740351      3.508570      0.012386
  C      -1.779993      2.418089      0.015356
  C      -1.882830     -0.414142      0.026250
  H      -1.102464     -2.287463      0.302341
  H      -2.778893     -2.226480      0.353813
  C      -0.600161      1.661205     -0.016867
  N      -1.935937     -1.816069     -0.039600
  H      -4.037169     -0.154207      0.086474
  C      -0.644964      0.263758     -0.011782
  H      -3.942830      2.320176      0.082656
  H       0.284494     -0.311886     -0.040454
14
Coordinates from ORCA-job job E -287.631045088076
  C      -3.011425      1.749336      0.054202
  C      -3.068011      0.352443      0.059510
  H       0.370019      2.162926     -0.044651
  H      -1.740357      3.508628      0.012416
  C      -1.779978      2.418182      0.015652
  C      -1.882783     -0.413914      0.027170
  H      -1.102359     -2.287917      0.301894
  H      -2.779163     -2.226906      0.353032
  C      -0.600340      1.661361     -0.016765
  N      -1.935836     -1.815357     -0.038209
  H      -4.036633     -0.154597      0.086029
  C      -0.645104      0.264009     -0.011769
  H      -3.942805      2.320020      0.082304
  H       0.283936     -0.312212     -0.040970
