16
Coordinates from ORCA-job job E -346.796885691433
  C      -2.404980      0.574912     -0.000109
  C      -2.326273     -0.818739     -0.000127
  C       0.082689     -3.532877     -0.000256
  H       0.913833      1.292863     -0.000225
  C      -1.238297      1.335117     -0.000144
  C      -1.086225     -1.463181     -0.000181
  H      -0.142813     -4.603777     -0.000251
  H      -3.375573      1.063240     -0.000067
  C       0.080296     -0.696611     -0.000217
  H      -3.238904     -1.409551     -0.000099
  O      -1.152832     -2.829459     -0.000192
  H      -1.295460      2.420391     -0.000130
  H       0.661548     -3.314856     -0.903949
  H       0.661638     -3.314867      0.903382
  C       0.002561      0.700036     -0.000198
  H       1.064499     -1.152181     -0.000259
16
Coordinates from ORCA-job job E -346.797911529571
  C      -2.412855      0.581945     -0.000107
  C      -2.340452     -0.813426     -0.000127
  C       0.092434     -3.546084     -0.000255
  H       0.919879      1.297164     -0.000228
  C      -1.239836      1.348295     -0.000143
  C      -1.092669     -1.462478     -0.000183
  H      -0.154980     -4.615928     -0.000254
  H      -3.388406      1.072038     -0.000063
  C       0.082492     -0.694946     -0.000219
  H      -3.254268     -1.410656     -0.000098
  O      -1.146672     -2.835600     -0.000196
  H      -1.294721      2.438945     -0.000128
  H       0.682484     -3.327818     -0.906058
  H       0.682563     -3.327834      0.905501
  C       0.001959      0.706099     -0.000199
  H       1.068754     -1.159256     -0.000264
16
Coordinates from ORCA-job job E -346.798103762134
  C      -2.414757      0.583496     -0.000106
  C      -2.348313     -0.811367     -0.000126
  C       0.097916     -3.547745     -0.000255
  H       0.922334      1.293161     -0.000230
  C      -1.239303      1.353175     -0.000143
  C      -1.097501     -1.461735     -0.000184
  H      -0.164368     -4.613825     -0.000255
  H      -3.391248      1.073768     -0.000061
  C       0.082708     -0.696405     -0.000221
  H      -3.259356     -1.413625     -0.000098
  O      -1.143759     -2.836903     -0.000198
  H      -1.292330      2.444113     -0.000127
  H       0.693553     -3.326558     -0.903376
  H       0.693624     -3.326576      0.902825
  C       0.000788      0.705965     -0.000200
  H       1.065720     -1.168480     -0.000266
16
Coordinates from ORCA-job job E -346.798132688971
  C      -2.414029      0.583068     -0.000106
  C      -2.349597     -0.811050     -0.000126
  C       0.098825     -3.547519     -0.000254
  H       0.922533      1.291094     -0.000230
  C      -1.239062      1.353973     -0.000143
  C      -1.098314     -1.460625     -0.000184
  H      -0.169968     -4.611336     -0.000255
  H      -3.390625      1.072889     -0.000061
  C       0.082865     -0.696382     -0.000222
  H      -3.257925     -1.416697     -0.000098
  O      -1.142751     -2.835678     -0.000200
  H      -1.292155      2.444302     -0.000127
  H       0.696242     -3.324659     -0.901287
  H       0.696310     -3.324677      0.900737
  C      -0.000117      0.705718     -0.000201
  H       1.063477     -1.171962     -0.000267
16
Coordinates from ORCA-job job E -346.798137377610
  C      -2.413333      0.582693     -0.000106
  C      -2.349122     -0.811123     -0.000126
  C       0.098362     -3.547428     -0.000254
  H       0.922466      1.290672     -0.000230
  C      -1.239111      1.353839     -0.000143
  C      -1.097868     -1.459898     -0.000185
  H      -0.172294     -4.610459     -0.000255
  H      -3.389935      1.072250     -0.000060
  C       0.083096     -0.695860     -0.000222
  H      -3.255822     -1.418831     -0.000098
  O      -1.142579     -2.834528     -0.000200
  H      -1.292777      2.443865     -0.000126
  H       0.696148     -3.323853     -0.900479
  H       0.696216     -3.323870      0.899930
  C      -0.000443      0.705870     -0.000201
  H       1.062702     -1.172880     -0.000267
16
Coordinates from ORCA-job job E -346.798138053904
  C      -2.413169      0.582645     -0.000106
  C      -2.348715     -0.811144     -0.000126
  C       0.097928     -3.547625     -0.000254
  H       0.922496      1.290950     -0.000230
  C      -1.239233      1.353762     -0.000142
  C      -1.097391     -1.459559     -0.000185
  H      -0.172980     -4.610528     -0.000254
  H      -3.389790      1.072143     -0.000060
  C       0.083346     -0.695379     -0.000222
  H      -3.254684     -1.419907     -0.000098
  O      -1.142582     -2.833991     -0.000201
  H      -1.293339      2.443744     -0.000126
  H       0.695739     -3.323969     -0.900392
  H       0.695806     -3.323986      0.899844
  C      -0.000419      0.706212     -0.000201
  H       1.062695     -1.172909     -0.000268
