13
Coordinates from ORCA-job job E -324.522418924413
  C      -3.760848      2.328721     -0.000052
  C      -3.760030      0.932465     -0.000070
  C      -2.548515      0.232400     -0.000094
  H      -0.403555      2.879954     -0.000091
  C      -2.553328      3.027116     -0.000061
  C      -2.544999     -1.201216     -0.000113
  H      -4.707699      0.397393     -0.000064
  N      -2.540882     -2.361985     -0.000129
  C      -1.343488      2.333020     -0.000085
  H      -2.555194      4.114867     -0.000049
  H      -4.702538      2.872610     -0.000033
  C      -1.339451      0.936852     -0.000100
  H      -0.390000      0.404908     -0.000118
13
Coordinates from ORCA-job job E -324.522964294856
  C      -3.766013      2.331586     -0.000053
  C      -3.767887      0.933481     -0.000070
  C      -2.548369      0.229837     -0.000094
  H      -0.394203      2.883612     -0.000090
  C      -2.553374      3.032883     -0.000060
  C      -2.545099     -1.206545     -0.000112
  H      -4.715061      0.392109     -0.000064
  N      -2.541340     -2.374526     -0.000128
  C      -1.338239      2.336011     -0.000085
  H      -2.555343      4.124928     -0.000047
  H      -4.711916      2.875946     -0.000034
  C      -1.331355      0.937948     -0.000101
  H      -0.382328      0.399834     -0.000120
13
Coordinates from ORCA-job job E -324.523021183428
  C      -3.767217      2.332620     -0.000053
  C      -3.770848      0.934578     -0.000070
  C      -2.548242      0.229936     -0.000095
  H      -0.392043      2.883918     -0.000090
  C      -2.553396      3.035077     -0.000060
  C      -2.545176     -1.206453     -0.000112
  H      -4.714997      0.387912     -0.000064
  N      -2.541788     -2.375876     -0.000127
  C      -1.336974      2.337143     -0.000085
  H      -2.555429      4.127286     -0.000047
  H      -4.714104      2.875998     -0.000034
  C      -1.328202      0.939128     -0.000102
  H      -0.382111      0.395837     -0.000121
13
Coordinates from ORCA-job job E -324.523035966857
  C      -3.767153      2.333073     -0.000053
  C      -3.771761      0.935432     -0.000070
  C      -2.548135      0.230686     -0.000094
  H      -0.391691      2.883791     -0.000090
  C      -2.553407      3.035907     -0.000060
  C      -2.545220     -1.205230     -0.000112
  H      -4.713184      0.384375     -0.000064
  N      -2.542178     -2.374713     -0.000127
  C      -1.336998      2.337670     -0.000085
  H      -2.555479      4.127901     -0.000047
  H      -4.714486      2.875675     -0.000034
  C      -1.327141      0.940057     -0.000102
  H      -0.383693      0.392479     -0.000121
13
Coordinates from ORCA-job job E -324.523039796705
  C      -3.766816      2.333275     -0.000053
  C      -3.771715      0.935923     -0.000070
  C      -2.548062      0.231378     -0.000094
  H      -0.391903      2.883773     -0.000090
  C      -2.553411      3.036040     -0.000060
  C      -2.545229     -1.204234     -0.000112
  H      -4.711436      0.382112     -0.000064
  N      -2.542461     -2.373447     -0.000127
  C      -1.337316      2.337922     -0.000085
  H      -2.555503      4.127884     -0.000047
  H      -4.714297      2.875529     -0.000034
  C      -1.327092      0.940602     -0.000102
  H      -0.385285      0.390347     -0.000121
13
Coordinates from ORCA-job job E -324.523040128494
  C      -3.766730      2.333312     -0.000053
  C      -3.771509      0.935996     -0.000070
  C      -2.548012      0.231593     -0.000094
  H      -0.392042      2.883921     -0.000090
  C      -2.553414      3.035914     -0.000060
  C      -2.545226     -1.204036     -0.000112
  H      -4.710898      0.381595     -0.000064
  N      -2.542657     -2.373155     -0.000127
  C      -1.337391      2.337999     -0.000084
  H      -2.555522      4.127741     -0.000047
  H      -4.714173      2.875593     -0.000034
  C      -1.327229      0.940714     -0.000102
  H      -0.385724      0.389917     -0.000121
