13
Coordinates from ORCA-job job E -2806.141970599231
  C      -3.346978      1.955738     -0.074315
  C      -3.467506      0.571847      0.043749
  H      -1.994706      3.632295     -0.158427
  C      -2.314737     -0.227170      0.182727
  C      -2.084376      2.550031     -0.066971
  Br     -2.392775     -1.922516     -0.943868
  H      -0.141353     -0.225272      0.247065
  H      -2.408643     -0.840405      1.111568
  C      -0.934757      1.766139      0.044124
  H       0.046359      2.237256      0.037891
  H      -4.237647      2.574032     -0.172460
  C      -1.043915      0.381370      0.162749
  H      -4.457180      0.114000      0.035153
13
Coordinates from ORCA-job job E -2806.151605998732
  C      -3.358961      1.959390     -0.073897
  C      -3.490009      0.584859      0.068254
  H      -1.992098      3.640547     -0.195932
  C      -2.319050     -0.252942      0.223976
  C      -2.082931      2.558208     -0.082626
  Br     -2.388057     -1.935006     -1.043431
  H      -0.117126     -0.210970      0.277116
  H      -2.413322     -0.886732      1.136096
  C      -0.922609      1.767420      0.043144
  H       0.061430      2.240013      0.027077
  H      -4.251074      2.579636     -0.181022
  C      -1.022439      0.390915      0.191175
  H      -4.481969      0.132007      0.059055
13
Coordinates from ORCA-job job E -2806.155366906734
  C      -3.363180      1.956942     -0.074889
  C      -3.500191      0.595085      0.107416
  H      -1.989300      3.637568     -0.255039
  C      -2.323539     -0.269436      0.279807
  C      -2.081525      2.559622     -0.108044
  Br     -2.376203     -1.874083     -1.161927
  H      -0.112358     -0.204759      0.327650
  H      -2.417769     -0.945657      1.143897
  C      -0.918975      1.763625      0.039861
  H       0.066740      2.233829      0.007567
  H      -4.255600      2.575379     -0.196639
  C      -1.015231      0.399892      0.234190
  H      -4.491083      0.139336      0.105136
13
Coordinates from ORCA-job job E -2806.157149731568
  C      -3.362888      1.951989     -0.078793
  C      -3.502222      0.600125      0.147764
  H      -1.986856      3.626485     -0.319603
  C      -2.326567     -0.275023      0.322718
  C      -2.080342      2.554287     -0.138864
  Br     -2.362145     -1.782065     -1.270677
  H      -0.118916     -0.203528      0.390905
  H      -2.421407     -1.003532      1.134430
  C      -0.919821      1.758389      0.035931
  H       0.066776      2.226022     -0.009162
  H      -4.255180      2.568431     -0.212230
  C      -1.017122      0.405242      0.276974
  H      -4.491526      0.140522      0.169592
13
Coordinates from ORCA-job job E -2806.159124053029
  C      -3.361018      1.941776     -0.085989
  C      -3.500435      0.603492      0.207658
  H      -1.984027      3.599303     -0.419303
  C      -2.329342     -0.273300      0.372639
  C      -2.079103      2.537395     -0.188258
  Br     -2.341994     -1.627877     -1.417790
  H      -0.134826     -0.202117      0.494218
  H      -2.425038     -1.080278      1.099628
  C      -0.922572      1.748722      0.030696
  H       0.064612      2.213526     -0.027250
  H      -4.252883      2.555715     -0.232639
  C      -1.024909      0.409789      0.337252
  H      -4.486679      0.141199      0.278123
13
Coordinates from ORCA-job job E -2806.160829125382
  C      -3.358794      1.929236     -0.093352
  C      -3.494923      0.603446      0.264915
  H      -1.982338      3.561483     -0.517234
  C      -2.330367     -0.260467      0.415055
  C      -2.078627      2.512008     -0.235706
  Br     -2.324898     -1.472935     -1.549881
  H      -0.154451     -0.198833      0.599598
  H      -2.427006     -1.141055      1.047788
  C      -0.925664      1.737741      0.026547
  H       0.061180      2.201407     -0.038936
  H      -4.249783      2.541395     -0.249941
  C      -1.035615      0.410939      0.390774
  H      -4.476928      0.142980      0.389358
13
Coordinates from ORCA-job job E -2806.162351348041
  C      -3.356949      1.920965     -0.097546
  C      -3.488105      0.600431      0.301438
  H      -1.982135      3.529958     -0.578982
  C      -2.329320     -0.237145      0.448636
  C      -2.078957      2.490532     -0.261268
  Br     -2.317816     -1.385699     -1.640043
  H      -0.169435     -0.194685      0.670399
  H      -2.427870     -1.169380      1.003325
  C      -0.927630      1.731448      0.025336
  H       0.058002      2.195792     -0.043843
  H      -4.246670      2.532066     -0.261579
  C      -1.044443      0.408259      0.420228
  H      -4.466887      0.144802      0.462884
13
Coordinates from ORCA-job job E -2806.163907387151
  C      -3.356353      1.921215     -0.095894
  C      -3.483116      0.596560      0.315843
  H      -1.982805      3.515835     -0.595166
  C      -2.327123     -0.205326      0.482863
  C      -2.079802      2.481187     -0.259691
  Br     -2.319193     -1.388940     -1.694250
  H      -0.174248     -0.190997      0.695280
  H      -2.428741     -1.171607      0.978756
  C      -0.927649      1.732380      0.027260
  H       0.056772      2.196813     -0.048745
  H      -4.244598      2.530799     -0.269539
  C      -1.049045      0.403945      0.427542
  H      -4.462314      0.145482      0.484725
13
Coordinates from ORCA-job job E -2806.165287576040
  C      -3.358293      1.928722     -0.089312
  C      -3.484208      0.596291      0.312772
  H      -1.983456      3.523133     -0.571222
  C      -2.326132     -0.180328      0.515744
  C      -2.080566      2.486407     -0.239670
  Br     -2.323002     -1.459698     -1.712432
  H      -0.166179     -0.188288      0.675754
  H      -2.429889     -1.163602      0.978077
  C      -0.925339      1.738244      0.030701
  H       0.058875      2.200336     -0.058430
  H      -4.245353      2.536239     -0.274622
  C      -1.047338      0.403056      0.423308
  H      -4.467334      0.146834      0.458317
13
Coordinates from ORCA-job job E -2806.166410359682
  C      -3.361181      1.937285     -0.082281
  C      -3.489046      0.601179      0.308226
  H      -1.983512      3.539467     -0.536866
  C      -2.327320     -0.165937      0.551128
  C      -2.080869      2.498050     -0.219177
  Br     -2.323931     -1.544251     -1.724834
  H      -0.153976     -0.184964      0.642442
  H      -2.431063     -1.161408      0.984527
  C      -0.922806      1.744512      0.034352
  H       0.062010      2.201935     -0.072818
  H      -4.247532      2.542037     -0.280459
  C      -1.042872      0.407694      0.423939
  H      -4.476117      0.151747      0.420806
13
Coordinates from ORCA-job job E -2806.166785393869
  C      -3.360881      1.940410     -0.080550
  C      -3.490329      0.606998      0.310784
  H      -1.982939      3.549142     -0.525089
  C      -2.329031     -0.163064      0.571897
  C      -2.080498      2.505957     -0.214494
  Br     -2.322595     -1.584940     -1.745655
  H      -0.151500     -0.182584      0.630806
  H      -2.430953     -1.166633      0.984551
  C      -0.923486      1.747553      0.036977
  H       0.062294      2.201153     -0.079517
  H      -4.247695      2.542549     -0.285658
  C      -1.042333      0.413942      0.431113
  H      -4.478268      0.156862      0.413820
13
Coordinates from ORCA-job job E -2806.166896335319
  C      -3.359285      1.942568     -0.080333
  C      -3.489249      0.610891      0.310395
  H      -1.982480      3.556510     -0.519364
  C      -2.329667     -0.163501      0.573813
  C      -2.079994      2.512487     -0.213071
  Br     -2.324178     -1.615261     -1.755376
  H      -0.153398     -0.182076      0.625712
  H      -2.429802     -1.168244      0.984391
  C      -0.924907      1.750565      0.039322
  H       0.061739      2.202877     -0.076554
  H      -4.247069      2.543307     -0.286298
  C      -1.043319      0.418131      0.431778
  H      -4.476604      0.159091      0.414572
13
Coordinates from ORCA-job job E -2806.166943572921
  C      -3.357700      1.944457     -0.079639
  C      -3.487396      0.613498      0.311375
  H      -1.982190      3.560378     -0.519287
  C      -2.329762     -0.163235      0.571375
  C      -2.079625      2.516553     -0.213210
  Br     -2.325998     -1.637342     -1.765430
  H      -0.156831     -0.181752      0.627219
  H      -2.428598     -1.168149      0.981641
  C      -0.926164      1.752979      0.040782
  H       0.061154      2.204868     -0.072198
  H      -4.246391      2.544345     -0.284869
  C      -1.045022      0.420976      0.432293
  H      -4.473692      0.159770      0.418933
13
Coordinates from ORCA-job job E -2806.166957655798
  C      -3.357265      1.946132     -0.078734
  C      -3.486646      0.614497      0.310587
  H      -1.982176      3.562250     -0.518470
  C      -2.329478     -0.162951      0.566166
  C      -2.079505      2.518443     -0.212398
  Br     -2.327688     -1.652593     -1.767335
  H      -0.158230     -0.181543      0.627803
  H      -2.428036     -1.166358      0.980697
  C      -0.926266      1.754679      0.041395
  H       0.061213      2.207004     -0.068602
  H      -4.246336      2.546261     -0.281740
  C      -1.045462      0.421992      0.430719
  H      -4.472340      0.159532      0.418898
13
Coordinates from ORCA-job job E -2806.166961142690
  C      -3.357395      1.946742     -0.078160
  C      -3.486512      0.614675      0.311268
  H      -1.982240      3.561601     -0.519760
  C      -2.329284     -0.162311      0.564866
  C      -2.079539      2.518072     -0.212421
  Br     -2.327912     -1.656618     -1.770301
  H      -0.158523     -0.181000      0.630058
  H      -2.428111     -1.165566      0.979591
  C      -0.926002      1.755097      0.041329
  H       0.061382      2.207710     -0.067965
  H      -4.246441      2.547241     -0.280012
  C      -1.045535      0.422170      0.431017
  H      -4.472102      0.159532      0.419474
13
Coordinates from ORCA-job job E -2806.166961924552
  C      -3.357665      1.946952     -0.077972
  C      -3.486743      0.614619      0.311093
  H      -1.982303      3.561280     -0.519645
  C      -2.329189     -0.162288      0.564172
  C      -2.079585      2.517726     -0.212159
  Br     -2.327890     -1.657912     -1.770418
  H      -0.158047     -0.180690      0.630191
  H      -2.428354     -1.165115      0.980048
  C      -0.925695      1.755200      0.041272
  H       0.061561      2.208040     -0.067923
  H      -4.246593      2.547785     -0.279169
  C      -1.045242      0.422076      0.430781
  H      -4.472470      0.159671      0.418715
